/*--------------------------------*- C++ -*----------------------------------*\
| =========                 |                                                 |
| \\      /  F ield         | OpenFOAM: The Open Source CFD Toolbox           |
|  \\    /   O peration     | Version:  3.0.x                                 |
|   \\  /    A nd           | Web:      www.OpenFOAM.org                      |
|    \\/     M anipulation  |                                                 |
\*---------------------------------------------------------------------------*/
FoamFile
{
    version     2.0;
    format      ascii;
    class       extendedFeatureEdgeMesh;
    location    "constant/extendedFeatureEdgeMesh";
    object      intake.extendedFeatureEdgeMesh;
}
// * * * * * * * * * * * * * * * * * * * * * * * * * * * * * * * * * * * * * //

// points
8((0.005 0.041 0.021) (0.025 0.026 0.021) (0.025 0.041 0.021) (0.005 0.026 0.021) (0.005 0.026 0.011) (0.025 0.041 0.011) (0.025 0.026 0.011) (0.005 0.041 0.011))
// edges

12
(
(1 2)
(2 0)
(3 1)
(0 3)
(6 4)
(5 6)
(7 5)
(4 7)
(3 4)
(6 1)
(5 2)
(7 0)
)

// concaveStart mixedStart nonFeatureStart
8 8 8
// internalStart flatStart openStart multipleStart
12 12 12 12
// normals

12
(
(-0 0 1)
(1 -0 0)
(0 1 -0)
(0 0 1)
(0 -1 0)
(-1 -0 0)
(0 0 -1)
(0 -1 -0)
(1 0 0)
(-0 0 -1)
(0 1 0)
(-1 0 0)
)

// normal volume types

12
(
0
0
0
0
0
0
0
0
0
0
0
0
)

// normalDirections

12
(
2(1 -1)
2(1 -1)
2(1 -1)
2(1 -1)
2(1 -1)
2(1 -1)
2(1 -1)
2(1 -1)
2(1 -1)
2(1 -1)
2(1 -1)
2(1 -1)
)

// edgeNormals

12
(
2(0 1)
2(0 2)
2(3 4)
2(3 5)
2(6 7)
2(6 8)
2(9 10)
2(9 11)
2(4 5)
2(7 8)
2(1 2)
2(10 11)
)

// featurePointNormals

8
(
3(0 2 5)
3(0 1 4)
3(0 1 2)
3(3 4 5)
3(6 7 11)
3(6 8 10)
3(6 7 8)
3(9 10 11)
)

// featurePointEdges

8
(
3(3 11 1)
3(2 9 0)
3(0 10 1)
3(2 8 3)
3(7 8 4)
3(6 10 5)
3(4 9 5)
3(6 11 7)
)

// regionEdges
0()


// ************************************************************************* //
