/*--------------------------------*- C++ -*----------------------------------*\
| =========                 |                                                 |
| \\      /  F ield         | OpenFOAM: The Open Source CFD Toolbox           |
|  \\    /   O peration     | Version:  3.0.x                                 |
|   \\  /    A nd           | Web:      www.OpenFOAM.org                      |
|    \\/     M anipulation  |                                                 |
\*---------------------------------------------------------------------------*/
FoamFile
{
    version     2.0;
    format      ascii;
    class       extendedFeatureEdgeMesh;
    location    "constant/extendedFeatureEdgeMesh";
    object      turbine.extendedFeatureEdgeMesh;
}
// * * * * * * * * * * * * * * * * * * * * * * * * * * * * * * * * * * * * * //

// points

1869
(
(-0.009 -0.011 0.01)
(-0.009 0.011 0.025)
(-0.009 0.011 0.01)
(-0.009 -0.011 0.025)
(0.009 0.011 0.025)
(0.009 -0.011 0.025)
(0.009 0.011 0.01)
(0.009 -0.011 0.01)
(-0.018924 -0.00373176 0.0035)
(-0.019 -0.0037 0.0035)
(-0.0209284 -0.00140187 0.0035)
(-0.0201623 -0.000759079 0.0035)
(-0.0160201 0.0107426 0.0035)
(-0.0157899 0.0138073 0.0035)
(-0.0160513 0.0108187 0.0035)
(-0.0147937 0.0137202 0.0035)
(-0.00373176 0.018924 0.0035)
(-0.00140187 0.0209284 0.0035)
(-0.000759079 0.0201623 0.0035)
(-0.0037 0.019 0.0035)
(0.0107426 0.0160201 0.0035)
(0.0138073 0.0157899 0.0035)
(0.0137202 0.0147937 0.0035)
(0.0108187 0.0160513 0.0035)
(0.018924 0.00373176 0.0035)
(0.0209284 0.00140187 0.0035)
(0.019 0.0037 0.0035)
(0.0201623 0.000759079 0.0035)
(0.0160201 -0.0107426 0.0035)
(0.0157899 -0.0138073 0.0035)
(0.0147937 -0.0137202 0.0035)
(0.0160513 -0.0108187 0.0035)
(0.00373176 -0.018924 0.0035)
(0.0037 -0.019 0.0035)
(0.00140187 -0.0209284 0.0035)
(0.000759079 -0.0201623 0.0035)
(-0.0107426 -0.0160201 0.0035)
(-0.0108187 -0.0160513 0.0035)
(-0.0138073 -0.0157899 0.0035)
(-0.0137202 -0.0147937 0.0035)
(0.0257071 0.0252929 0.017)
(0.00429289 0.0417071 0.017)
(0.00429289 0.0417071 0.013)
(0.00429289 0.0252929 0.017)
(0.0257071 0.0417071 0.017)
(0.000707107 0.0377071 0)
(-0.0249145 0.0144326 0.00179419)
(-0.0189043 -0.00361968 0.001)
(-0.0145775 -0.00348275 0.0025)
(-0.0184498 -0.00279995 0.001)
(-0.0159268 0.0108078 0.001)
(-0.0133141 0.00687808 0.001)
(-0.0133141 0.00687808 0.0025)
(-0.0150259 0.0110661 0.001)
(-0.0127705 0.00784515 0.0025)
(-0.00361968 0.0189043 0.001)
(-0.00455097 0.0142781 0.001)
(-0.00455097 0.0142781 0.0025)
(-0.00279995 0.0184498 0.001)
(-0.00348275 0.0145775 0.0025)
(0.0108078 0.0159268 0.001)
(0.00687808 0.0133141 0.001)
(0.00687808 0.0133141 0.0025)
(0.00784515 0.0127705 0.0025)
(0.0110661 0.0150259 0.001)
(0.0189043 0.00361968 0.001)
(0.0142781 0.00455097 0.001)
(0.0142781 0.00455097 0.0025)
(0.0145775 0.00348275 0.0025)
(0.0184498 0.00279995 0.001)
(0.0159268 -0.0108078 0.001)
(0.0133141 -0.00687808 0.001)
(0.0133141 -0.00687808 0.0025)
(0.0150259 -0.0110661 0.001)
(0.0127705 -0.00784515 0.0025)
(0.00361968 -0.0189043 0.001)
(0.00455097 -0.0142781 0.001)
(0.00455097 -0.0142781 0.0025)
(0.00279995 -0.0184498 0.001)
(0.00348275 -0.0145775 0.0025)
(-0.0108078 -0.0159268 0.001)
(-0.00687808 -0.0133141 0.001)
(-0.00687808 -0.0133141 0.0025)
(-0.00784515 -0.0127705 0.0025)
(-0.0110661 -0.0150259 0.001)
(-0.0142781 -0.00455097 0.001)
(-0.0142781 -0.00455097 0.0025)
(-0.0182797 -0.00283811 0.00122852)
(-0.0149326 0.0109189 0.00122852)
(-0.00283811 0.0182797 0.00122852)
(0.0109189 0.0149326 0.00122852)
(0.0182797 0.00283811 0.00122852)
(0.0149326 -0.0109189 0.00122852)
(0.00283811 -0.0182797 0.00122852)
(-0.0109189 -0.0149326 0.00122852)
(0 0.037 0.001)
(0 0.037 0.006)
(0.022845 0.0143017 0.0015)
(-0.0220948 -0.0154792 0.00172914)
(0.022845 -0.0143017 0.00170001)
(-0.022845 -0.0143017 0.00170001)
(-0.0248981 0.0144889 0.00140849)
(-0.0248157 0.0147721 0.0015)
(-0.018924 -0.00373176 0.001)
(-0.0189043 -0.00361968 0.0035)
(-0.0184498 -0.00279995 0.0035)
(-0.0179006 -0.00289679 0.0035)
(-0.0176901 -0.00394933 0.0035)
(-0.0182784 -0.00283018 0.00122823)
(-0.0201623 -0.000759079 0.001)
(-0.0209284 -0.00140187 0.001)
(-0.0159268 0.0108078 0.0035)
(-0.0160201 0.0107426 0.001)
(-0.0150259 0.0110661 0.0035)
(-0.0153014 0.00971621 0.0035)
(-0.014706 0.0106093 0.0035)
(-0.014926 0.0109235 0.00122823)
(-0.0147937 0.0137202 0.001)
(-0.0157899 0.0138073 0.001)
(-0.0160513 0.0108187 0.001)
(-0.00361968 0.0189043 0.0035)
(-0.00373176 0.018924 0.001)
(-0.00279995 0.0184498 0.0035)
(-0.00289679 0.0179006 0.0035)
(-0.00394933 0.0176901 0.0035)
(-0.00283018 0.0182784 0.00122823)
(-0.00140187 0.0209284 0.001)
(-0.000759079 0.0201623 0.001)
(-0.0037 0.019 0.001)
(0.0108078 0.0159268 0.0035)
(0.0107426 0.0160201 0.001)
(0.0110661 0.0150259 0.0035)
(0.0106093 0.014706 0.0035)
(0.00971621 0.0153014 0.0035)
(0.0109235 0.014926 0.00122823)
(0.0138073 0.0157899 0.001)
(0.0137202 0.0147937 0.001)
(0.0108187 0.0160513 0.001)
(0.0189043 0.00361968 0.0035)
(0.018924 0.00373176 0.001)
(0.0176901 0.00394933 0.0035)
(0.0184498 0.00279995 0.0035)
(0.0179006 0.00289679 0.0035)
(0.0182784 0.00283018 0.00122823)
(0.0201623 0.000759079 0.001)
(0.0209284 0.00140187 0.001)
(0.019 0.0037 0.001)
(0.0159268 -0.0108078 0.0035)
(0.0160201 -0.0107426 0.001)
(0.0150259 -0.0110661 0.0035)
(0.014706 -0.0106093 0.0035)
(0.0153014 -0.00971621 0.0035)
(0.014926 -0.0109235 0.00122823)
(0.0147937 -0.0137202 0.001)
(0.0157899 -0.0138073 0.001)
(0.0160513 -0.0108187 0.001)
(0.00361968 -0.0189043 0.0035)
(0.00373176 -0.018924 0.001)
(0.00394933 -0.0176901 0.0035)
(0.00279995 -0.0184498 0.0035)
(0.00289679 -0.0179006 0.0035)
(0.00283018 -0.0182784 0.00122823)
(0.00140187 -0.0209284 0.001)
(0.000759079 -0.0201623 0.001)
(0.0037 -0.019 0.001)
(-0.0107426 -0.0160201 0.001)
(-0.0108078 -0.0159268 0.0035)
(-0.00971621 -0.0153014 0.0035)
(-0.0110661 -0.0150259 0.0035)
(-0.0106093 -0.014706 0.0035)
(-0.0109235 -0.014926 0.00122823)
(-0.0138073 -0.0157899 0.001)
(-0.0137202 -0.0147937 0.001)
(-0.0108187 -0.0160513 0.001)
(-0.019 -0.0037 0.001)
(-0.0145892 -0.00342993 0.00244785)
(-0.0135475 -0.0036177 0.00222645)
(-0.0139142 0.00152552 0.00230438)
(-0.0148911 0.00170118 0.0025)
(-0.0139236 0.00145377 0.000302604)
(-0.0135306 -0.00369422 0.000219056)
(-0.0148981 0.00164741 0.001)
(-0.0127414 0.00789077 0.00244785)
(-0.0121377 0.00702146 0.00222645)
(-0.00876011 0.0109175 0.00230438)
(-0.00932666 0.0117325 0.0025)
(-0.00881753 0.0108735 0.000302605)
(-0.0121798 0.00695536 0.000219056)
(-0.00936969 0.0116995 0.001)
(-0.00342993 0.0145892 0.00244785)
(-0.0036177 0.0135475 0.00222645)
(0.00152552 0.0139142 0.00230438)
(0.00170118 0.0148911 0.0025)
(0.00145377 0.0139236 0.000302604)
(-0.00369422 0.0135306 0.000219056)
(0.00164741 0.0148981 0.001)
(0.00789077 0.0127414 0.00244785)
(0.00702146 0.0121377 0.00222645)
(0.0109175 0.00876011 0.00230438)
(0.0117325 0.00932666 0.0025)
(0.00695536 0.0121798 0.000219056)
(0.0108735 0.00881753 0.000302605)
(0.0116995 0.00936969 0.001)
(0.0145892 0.00342993 0.00244785)
(0.0135475 0.0036177 0.00222645)
(0.0139142 -0.00152552 0.00230438)
(0.0148911 -0.00170118 0.0025)
(0.0139236 -0.00145377 0.000302604)
(0.0135306 0.00369422 0.000219056)
(0.0148981 -0.00164741 0.001)
(0.0127414 -0.00789077 0.00244785)
(0.0121377 -0.00702146 0.00222645)
(0.00876011 -0.0109175 0.00230438)
(0.00932666 -0.0117325 0.0025)
(0.0121798 -0.00695536 0.000219057)
(0.00881753 -0.0108735 0.000302605)
(0.00936969 -0.0116995 0.001)
(0.00342993 -0.0145892 0.00244785)
(0.0036177 -0.0135475 0.00222645)
(-0.00152552 -0.0139142 0.00230438)
(-0.00170118 -0.0148911 0.0025)
(-0.00145377 -0.0139236 0.000302604)
(0.00369422 -0.0135306 0.000219056)
(-0.00164741 -0.0148981 0.001)
(-0.00789077 -0.0127414 0.00244785)
(-0.00702146 -0.0121377 0.00222645)
(-0.0109175 -0.00876011 0.00230438)
(-0.0117325 -0.00932666 0.0025)
(-0.0108735 -0.00881753 0.000302605)
(-0.00695536 -0.0121798 0.000219056)
(-0.0116995 -0.00936969 0.001)
(0 0.036 0.001)
(0 0.026 0.001)
(0 0.036 0.006)
(0 0.026 0.006)
(0.005 0.026 0.017)
(0.005 0.041 0.012)
(0.005 0.041 0.017)
(0.005 0.026 0.012)
(0.025 0.041 0.017)
(0.025 0.026 0.017)
(0.00429289 0.0252929 0.013)
(-0.000707107 0.0252929 0.007)
(0.00993548 0.025 0.007)
(0.00993548 0.025 0)
(0.0269609 0.000896459 0)
(0.0264431 0.00524502 0)
(-0.0267142 0.00524502 0)
(-0.0268653 0.00361118 0)
(-0.000707107 0.0367071 0.007)
(0.000414214 0.0378284 0.007)
(0.023432 -0.00889252 0.007)
(0.0160054 -0.01921 0.007)
(0.0122929 -0.0218096 0.007)
(-0.0122929 -0.0218096 0.007)
(-0.0160054 -0.01921 0.007)
(-0.023432 -0.00889252 0.007)
(-0.0213072 0.0232238 0.007)
(0.000707107 0.0377071 0.000784405)
(0.0206243 0.0174196 0.00206519)
(-0.0247494 0.015 0.00157363)
(-0.026802 0.00429598 0.003789)
(-0.014 0 0.0035)
(-0.0261141 0.0095763 0.00146757)
(-0.0251584 0.0135946 0.0015)
(-0.0258858 0.0106066 0.00197757)
(0.014 0 0.0035)
(0.0206243 -0.0174196 0.00211023)
(-0.0206243 -0.0174196 0.00211023)
(0.0220051 0.0156201 0.00196285)
(-0.0220051 -0.0156201 0.00213641)
(-0.0098995 -0.0098995 0.0035)
(0.0220051 -0.0156201 0.00213641)
(0.0098995 -0.0098995 0.0035)
(0.00893471 -0.0107836 0.0035)
(0.0219821 0.01565 0.0015)
(-0.00260472 -0.0137721 0.0035)
(-0.0219821 -0.01565 0.00155372)
(-0.0134889 -0.00388229 0.0035)
(0.010281 -0.0228569 0.00699999)
(0.00679289 -0.0122833 0.0035)
(0.0134889 -0.00388229 0.0035)
(-0.00893471 -0.0107836 0.0035)
(-0.010281 -0.0228569 0.00699999)
(-0.00679289 -0.0122833 0.0035)
(-0.0225259 -0.0148025 0.0015)
(-0.00789654 -0.0115802 0.0035)
(0.00789654 -0.0115802 0.0035)
(0.00388229 -0.0134889 0.0035)
(0.00260472 -0.0137721 0.0035)
(0.0219821 -0.01565 0.00155372)
(-0.00388229 -0.0134889 0.0035)
(0.00192836 0.00229813 0.07)
(0.00212132 0.00212132 0.07)
(-0.00102606 0.00281908 0.07)
(-0.000776457 0.00289778 0.07)
(-0.00281908 0.00102606 0.07)
(-0.00271892 0.00126785 0.07)
(0.00281908 -0.00102606 0.07)
(0.00271892 -0.00126785 0.07)
(-0.00102606 -0.00281908 0.07)
(-0.00126785 -0.00271892 0.07)
(0.00271892 0.00126785 0.07)
(0.00281908 0.00102606 0.07)
(0.00259808 0.0015 0.07)
(0.00102606 0.00281908 0.07)
(0.00126785 0.00271892 0.07)
(-0.00229813 0.00192836 0.07)
(-0.00212132 0.00212132 0.07)
(-0.000520944 0.00295442 0.07)
(-0.000261467 0.00298858 0.07)
(0.00298858 -0.000261467 0.07)
(0.00295442 -0.000520944 0.07)
(0.00229813 -0.00192836 0.07)
(0.00212132 -0.00212132 0.07)
(-0.000261467 -0.00298858 0.07)
(-0.000520944 -0.00295442 0.07)
(-0.00192836 -0.00229813 0.07)
(-0.00212132 -0.00212132 0.07)
(0.00295442 0.000520944 0.07)
(0.00298858 0.000261467 0.07)
(0.00289778 0.000776457 0.07)
(0.00229813 0.00192836 0.07)
(0.00245746 0.00172073 0.07)
(0.0015 0.00259808 0.07)
(0.00172073 0.00245746 0.07)
(0 0.003 0.07)
(0.000261467 0.00298858 0.07)
(0.000776457 0.00289778 0.07)
(0.000520944 0.00295442 0.07)
(-0.003 0 0.07)
(-0.00298858 0.000261467 0.07)
(-0.00289778 0.000776457 0.07)
(-0.00295442 0.000520944 0.07)
(-0.00259808 0.0015 0.07)
(-0.00245746 0.00172073 0.07)
(-0.00172073 0.00245746 0.07)
(-0.0015 0.00259808 0.07)
(-0.00192836 0.00229813 0.07)
(-0.00126785 0.00271892 0.07)
(0.003 0 0.07)
(0.000261467 -0.00298858 0.07)
(0 -0.003 0.07)
(0.00289778 -0.000776457 0.07)
(0.000520944 -0.00295442 0.07)
(0.000776457 -0.00289778 0.07)
(0.00192836 -0.00229813 0.07)
(0.00172073 -0.00245746 0.07)
(0.00259808 -0.0015 0.07)
(0.00245746 -0.00172073 0.07)
(-0.000776457 -0.00289778 0.07)
(-0.0015 -0.00259808 0.07)
(-0.00289778 -0.000776457 0.07)
(-0.00295442 -0.000520944 0.07)
(-0.00298858 -0.000261467 0.07)
(0.005 0 0.006)
(0.00498097 0.000435779 0.006)
(0.00492404 0.00086824 0.006)
(0.00498097 -0.000435779 0.006)
(0.00482963 0.0012941 0.006)
(0.00469846 0.0017101 0.006)
(0.00492404 -0.00086824 0.006)
(0.00453154 0.00211309 0.006)
(0.00433013 0.0025 0.006)
(0.00482963 -0.0012941 0.006)
(0.00409576 0.00286788 0.006)
(0.00383022 0.00321394 0.006)
(0.00469846 -0.0017101 0.006)
(0.00353553 0.00353553 0.006)
(0.00321394 0.00383022 0.006)
(0.00453154 -0.00211309 0.006)
(0.00286788 0.00409576 0.006)
(0.0025 0.00433013 0.006)
(0.00211309 0.00453154 0.006)
(0.0017101 0.00469846 0.006)
(0.0012941 0.00482963 0.006)
(0.00086824 0.00492404 0.006)
(0.000435779 0.00498097 0.006)
(0 0.005 0.006)
(-0.000435779 0.00498097 0.006)
(-0.00086824 0.00492404 0.006)
(-0.0012941 0.00482963 0.006)
(-0.0017101 0.00469846 0.006)
(-0.00211309 0.00453154 0.006)
(-0.0025 0.00433013 0.006)
(-0.00286788 0.00409576 0.006)
(-0.00321394 0.00383022 0.006)
(-0.00353553 0.00353553 0.006)
(-0.00383022 0.00321394 0.006)
(-0.00409576 0.00286788 0.006)
(-0.00433013 0.0025 0.006)
(-0.00453154 0.00211309 0.006)
(0.00433013 -0.0025 0.006)
(0.00409576 -0.00286788 0.006)
(0.00383022 -0.00321394 0.006)
(0.00353553 -0.00353553 0.006)
(0.00321394 -0.00383022 0.006)
(0.00286788 -0.00409576 0.006)
(0.0025 -0.00433013 0.006)
(0.00211309 -0.00453154 0.006)
(0.0017101 -0.00469846 0.006)
(0.0012941 -0.00482963 0.006)
(0.00086824 -0.00492404 0.006)
(0.000435779 -0.00498097 0.006)
(0 -0.005 0.006)
(-0.000435779 -0.00498097 0.006)
(-0.00086824 -0.00492404 0.006)
(-0.0012941 -0.00482963 0.006)
(-0.0017101 -0.00469846 0.006)
(-0.00211309 -0.00453154 0.006)
(-0.0025 -0.00433013 0.006)
(-0.00286788 -0.00409576 0.006)
(-0.00321394 -0.00383022 0.006)
(-0.00469846 0.0017101 0.006)
(-0.00353553 -0.00353553 0.006)
(-0.00383022 -0.00321394 0.006)
(-0.00482963 0.0012941 0.006)
(-0.00409576 -0.00286788 0.006)
(-0.00433013 -0.0025 0.006)
(-0.00492404 0.00086824 0.006)
(-0.00453154 -0.00211309 0.006)
(-0.00469846 -0.0017101 0.006)
(-0.00498097 0.000435779 0.006)
(-0.00482963 -0.0012941 0.006)
(-0.00492404 -0.00086824 0.006)
(-0.005 0 0.006)
(-0.00498097 -0.000435779 0.006)
(-0.00245746 -0.00172073 0.07)
(-0.00259808 -0.0015 0.07)
(-0.00271892 -0.00126785 0.07)
(-0.00281908 -0.00102606 0.07)
(0.0015 -0.00259808 0.07)
(0.00126785 -0.00271892 0.07)
(0.00102606 -0.00281908 0.07)
(-0.00172073 -0.00245746 0.07)
(-0.00229813 -0.00192836 0.07)
(0.0005 0 0)
(0.000498096 4.35772e-05 0)
(0.000498096 -4.35772e-05 0)
(0.000353553 -0.000353553 0)
(0.000383021 -0.000321393 0)
(0.00017101 -0.000469846 0)
(0.000211308 -0.000453154 0)
(0.000453154 -0.000211308 0)
(0.000469846 -0.00017101 0)
(0.000321393 0.000383021 0)
(0.000286788 0.000409575 0)
(0.000409575 0.000286788 0)
(0.000383021 0.000321393 0)
(0.000482963 -0.000129409 0)
(0.000492403 -8.68235e-05 0)
(8.68235e-05 -0.000492403 0)
(0.000129409 -0.000482963 0)
(0 -0.0005 0)
(4.35772e-05 -0.000498096 0)
(0.000249999 -0.000433012 0)
(0.000286788 -0.000409575 0)
(-0.000498096 -4.35772e-05 0)
(-0.000492403 -8.68235e-05 0)
(-0.00025 -0.000433012 0)
(-0.000211308 -0.000453154 0)
(0 0.0005 0)
(-4.35772e-05 0.000498096 0)
(-8.68235e-05 0.000492403 0)
(-0.000383021 0.000321393 0)
(-0.000409575 0.000286788 0)
(-0.000492403 8.68235e-05 0)
(-0.000498096 4.35772e-05 0)
(0.000492403 8.68235e-05 0)
(0.000482963 0.000129409 0)
(0.000469846 0.00017101 0)
(0.000453154 0.000211308 0)
(0.000433012 -0.000249999 0)
(0.000433012 0.000249999 0)
(0.000409575 -0.000286788 0)
(0.000353553 0.000353553 0)
(0.000321393 -0.000383021 0)
(0.00025 0.000433012 0)
(0.000211308 0.000453154 0)
(0.00017101 0.000469846 0)
(0.000129409 0.000482963 0)
(8.68235e-05 0.000492403 0)
(4.35772e-05 0.000498096 0)
(-4.35772e-05 -0.000498096 0)
(-8.68235e-05 -0.000492403 0)
(-0.000129409 -0.000482963 0)
(-0.000129409 0.000482963 0)
(-0.00017101 -0.000469846 0)
(-0.00017101 0.000469846 0)
(-0.000211308 0.000453154 0)
(-0.000249999 0.000433012 0)
(-0.000286788 -0.000409575 0)
(-0.000286788 0.000409575 0)
(-0.000321393 -0.000383021 0)
(-0.000321393 0.000383021 0)
(-0.000353553 -0.000353553 0)
(-0.000353553 0.000353553 0)
(-0.000383021 -0.000321393 0)
(-0.000409575 -0.000286788 0)
(-0.000433012 -0.00025 0)
(-0.000433012 0.00025 0)
(-0.000453154 -0.000211308 0)
(-0.000453154 0.000211308 0)
(-0.000469846 -0.00017101 0)
(-0.000469846 0.00017101 0)
(-0.000482963 -0.000129409 0)
(-0.000482963 0.000129409 0)
(-0.0005 0 0)
(-0.0182334 -0.00283811 0.00144647)
(-0.0172046 -0.00301951 0.001)
(-0.0148998 0.0108861 0.00144646)
(-0.0143006 0.0100304 0.001)
(-0.00283811 0.0182334 0.00144647)
(-0.00301951 0.0172046 0.001)
(0.0108861 0.0148998 0.00144646)
(0.0100304 0.0143006 0.001)
(0.0182334 0.00283811 0.00144647)
(0.0172046 0.00301951 0.001)
(0.0143006 -0.0100304 0.001)
(0.0148998 -0.0108861 0.00144646)
(0.00301951 -0.0172046 0.001)
(0.00283811 -0.0182334 0.00144647)
(-0.0108861 -0.0148998 0.00144646)
(-0.0100304 -0.0143006 0.001)
(-0.0137721 -0.00260472 0.00227418)
(-0.0147721 -0.00260472 0.00248674)
(-0.0148345 -0.00213088 0.0025)
(-0.0139429 -0.00130734 0.00231049)
(-0.0139757 -0.000556196 0.00231746)
(-0.014 0 0.00232262)
(-0.0139571 0.000982333 0.00231351)
(-0.0139691 0.000707572 0.00231606)
(-0.0139429 0.00130734 0.00231049)
(-0.0149995 0.00172117 0.00253508)
(-0.0148966 0.00165924 0.00133002)
(-0.0139183 0.0014945 0.00143891)
(-0.0139609 0.000896459 0.000310515)
(-0.0139429 0.00130734 0.000306702)
(-0.014 0 0.000318835)
(-0.0139429 -0.00130734 0.000306702)
(-0.0138135 -0.0022907 0.000279184)
(-0.0137721 -0.00260472 0.000270396)
(-0.0145775 -0.00348275 0.00106221)
(-0.0145788 -0.00347684 0.00121722)
(-0.0135338 -0.0036795 0.000605365)
(-0.0172046 0.00204522 0.001)
(-0.0102756 0.00948903 0.00231746)
(-0.0107836 0.00893471 0.00231049)
(-0.0115802 0.00789654 0.00227418)
(-0.0122873 0.00860365 0.00248674)
(-0.0119963 0.00898281 0.0025)
(-0.00893471 0.0107836 0.00231049)
(-0.0098995 0.0098995 0.00232262)
(-0.00938922 0.0118233 0.00253508)
(-0.00936022 0.0117067 0.00133002)
(-0.00878494 0.0108985 0.00143891)
(-0.00893471 0.0107836 0.000306702)
(-0.0098995 0.0098995 0.000318835)
(-0.0107836 0.00893471 0.000306702)
(-0.0115802 0.00789654 0.000270397)
(-0.0127705 0.00784515 0.00106223)
(-0.0127672 0.00785025 0.00121722)
(-0.0121717 0.00696808 0.000605365)
(-0.0107193 0.0136117 0.001)
(-0.000556196 0.0139757 0.00231746)
(-0.00130734 0.0139429 0.00231049)
(-0.00260472 0.0137721 0.00227418)
(-0.00260472 0.0147721 0.00248674)
(-0.00213088 0.0148345 0.0025)
(0.00130734 0.0139429 0.00231049)
(0 0.014 0.00232262)
(0.0014945 0.0139183 0.00143891)
(0.00172117 0.0149995 0.00253508)
(0.00165924 0.0148966 0.00133002)
(0.00130734 0.0139429 0.000306702)
(0 0.014 0.000318835)
(-0.00130734 0.0139429 0.000306702)
(-0.0022907 0.0138135 0.000279184)
(-0.00260472 0.0137721 0.000270396)
(-0.00348275 0.0145775 0.00106221)
(-0.00347684 0.0145788 0.00121722)
(-0.0036795 0.0135338 0.000605365)
(0.00204522 0.0172046 0.001)
(0.00948903 0.0102756 0.00231746)
(0.00893471 0.0107836 0.00231049)
(0.00789654 0.0115802 0.00227418)
(0.00860365 0.0122873 0.00248674)
(0.00898281 0.0119963 0.0025)
(0.0107836 0.00893471 0.00231049)
(0.0098995 0.0098995 0.00232262)
(0.0118233 0.00938922 0.00253508)
(0.0117067 0.00936022 0.00133002)
(0.0108985 0.00878494 0.00143891)
(0.00893471 0.0107836 0.000306702)
(0.0098995 0.0098995 0.000318835)
(0.00789654 0.0115802 0.000270397)
(0.0107836 0.00893471 0.000306702)
(0.00784515 0.0127705 0.00106223)
(0.00785025 0.0127672 0.00121722)
(0.00696808 0.0121717 0.000605365)
(0.0136117 0.0107193 0.001)
(0.0147721 0.00260472 0.00248674)
(0.0148345 0.00213088 0.0025)
(0.0139757 0.000556195 0.00231746)
(0.0139691 0.000707572 0.00231606)
(0.0139571 0.000982333 0.00231351)
(0.0139429 0.00130734 0.00231049)
(0.0137721 0.00260472 0.00227418)
(0.0135838 0.00345407 0.00223416)
(0.0139429 -0.00130734 0.00231049)
(0.014 0 0.00232262)
(0.0149995 -0.00172117 0.00253508)
(0.0148966 -0.00165924 0.00133002)
(0.0139183 -0.0014945 0.00143891)
(0.014 0 0.000318835)
(0.0139429 -0.00130734 0.000306702)
(0.0139609 0.000896459 0.000310515)
(0.0139429 0.00130734 0.000306702)
(0.0138135 0.0022907 0.000279184)
(0.0137721 0.00260472 0.000270396)
(0.013549 0.00361118 0.000222969)
(0.0145775 0.00348275 0.00106221)
(0.0145788 0.00347684 0.00121722)
(0.0135338 0.0036795 0.000605364)
(0.0135462 0.0036237 0.00206923)
(0.0172046 -0.00204522 0.001)
(0.0122873 -0.00860365 0.00248674)
(0.0119963 -0.00898281 0.0025)
(0.0115802 -0.00789654 0.00227418)
(0.0107836 -0.00893471 0.00231049)
(0.0102756 -0.00948903 0.00231746)
(0.0098995 -0.0098995 0.00232262)
(0.00893471 -0.0107836 0.00231049)
(0.00878494 -0.0108985 0.00143891)
(0.00936022 -0.0117067 0.00133002)
(0.00938922 -0.0118233 0.00253508)
(0.0115802 -0.00789654 0.000270397)
(0.0107836 -0.00893471 0.000306702)
(0.0098995 -0.0098995 0.000318835)
(0.00893471 -0.0107836 0.000306702)
(0.0121717 -0.00696808 0.000605365)
(0.0127705 -0.00784515 0.00106223)
(0.0127672 -0.00785025 0.00121722)
(0.0107193 -0.0136117 0.001)
(0.00260472 -0.0147721 0.00248674)
(0.00260472 -0.0137721 0.00227418)
(0.00213088 -0.0148345 0.0025)
(0.00130734 -0.0139429 0.00231049)
(0.000556196 -0.0139757 0.00231746)
(0 -0.014 0.00232262)
(-0.00130734 -0.0139429 0.00231049)
(-0.00165924 -0.0148966 0.00133002)
(-0.00172117 -0.0149995 0.00253508)
(-0.0014945 -0.0139183 0.00143891)
(0.0022907 -0.0138135 0.000279184)
(0.00130734 -0.0139429 0.000306702)
(0 -0.014 0.000318835)
(-0.00130734 -0.0139429 0.000306702)
(0.00260472 -0.0137721 0.000270396)
(0.0036795 -0.0135338 0.000605365)
(0.00348275 -0.0145775 0.00106221)
(0.00347684 -0.0145788 0.00121722)
(-0.00204522 -0.0172046 0.001)
(-0.00789654 -0.0115802 0.00227418)
(-0.00860365 -0.0122873 0.00248674)
(-0.00898281 -0.0119963 0.0025)
(-0.00893471 -0.0107836 0.00231049)
(-0.00948903 -0.0102756 0.00231746)
(-0.0098995 -0.0098995 0.00232262)
(-0.0107836 -0.00893471 0.00231049)
(-0.0118233 -0.00938922 0.00253508)
(-0.0117067 -0.00936022 0.00133002)
(-0.0108985 -0.00878494 0.00143891)
(-0.0098995 -0.0098995 0.000318835)
(-0.0107836 -0.00893471 0.000306702)
(-0.00893471 -0.0107836 0.000306702)
(-0.00789654 -0.0115802 0.000270397)
(-0.00784515 -0.0127705 0.00106223)
(-0.00785025 -0.0127672 0.00121722)
(-0.00696808 -0.0121717 0.000605365)
(-0.0136117 -0.0107193 0.001)
(0.0243674 0.0252929 0.005)
(0.0247702 0.0252929 0.00577382)
(0.0253664 0.0252929 0.00741181)
(0.0255552 0.0252929 0.00826352)
(0.026 0.041 0.017)
(0.026 0.026 0.017)
(0.025104 0.0252929 0.0065798)
(0.025 0.025 0.017)
(0.005 0.025 0.017)
(0.0214279 0.025 0.00233955)
(0.0220711 0.025 0.00292893)
(0.0207358 0.025 0.00180848)
(0.02 0.025 0.00133975)
(0.0192262 0.025 0.000936922)
(0.0184202 0.025 0.000603073)
(0.0175882 0.025 0.000340741)
(0.0167365 0.025 0.000151922)
(0.0158716 0.025 3.80526e-05)
(0.015 0.025 0)
(0.0257071 0.0252929 0.01)
(0.0256691 0.0252929 0.00912844)
(0.004 0.041 0.017)
(0.005 0.042 0.017)
(0.025 0.042 0.017)
(0.004 0.026 0.017)
(0.0257071 0.0417071 0.01)
(0.0220711 0.042 0.00292893)
(0.0214279 0.042 0.00233955)
(0.00857212 0.042 0.00233955)
(0.00792893 0.042 0.00292893)
(0.0207358 0.042 0.00180848)
(0.00926424 0.042 0.00180848)
(0.02 0.042 0.00133975)
(0.01 0.042 0.00133975)
(0.0192262 0.042 0.000936922)
(0.0107738 0.042 0.000936922)
(0.0184202 0.042 0.000603073)
(0.0115798 0.042 0.000603073)
(0.0175882 0.042 0.000340741)
(0.0124118 0.042 0.000340741)
(0.0167365 0.042 0.000151922)
(0.0132635 0.042 0.000151922)
(0.0158716 0.042 3.80526e-05)
(0.0141284 0.042 3.80526e-05)
(0.015 0.042 0)
(-0.0116952 0.0342405 0.007)
(-0.00959963 0.0354757 0.007)
(-0.00959963 0.0354757 0)
(-0.0116952 0.0342405 0)
(0.027 0 0)
(0.0269429 -0.00130734 0)
(0.0269011 -0.00226605 0)
(0.014 0 0)
(0.0139609 0.000896459 0)
(0.0268565 -0.00260472 0)
(0.0269429 0.00130734 0)
(0.0139429 0.00130734 0)
(0.0266883 -0.00388229 0)
(0.0269011 0.00226605 0)
(0.026605 -0.00451485 0)
(0.0268565 0.00260472 0)
(0.0264686 -0.0051303 0)
(0.026724 0.00361118 0)
(0.0137721 0.00260472 0)
(0.0262005 -0.00633927 0)
(0.0266883 0.00388229 0)
(0.0261141 -0.00672929 0)
(0.026605 0.00451485 0)
(0.0258711 -0.0075 0)
(0.0264686 0.0051303 0)
(0.0255231 -0.00860365 0)
(0.025432 -0.00889252 0)
(0.0262005 0.00633927 0)
(0.0250621 -0.00978567 0)
(0.013549 0.00361118 0)
(0.024722 -0.0106066 0)
(0.0261141 0.00672929 0)
(0.024564 -0.0109881 0)
(0.0258711 0.0075 0)
(0.0242711 -0.0116952 0)
(0.0134889 0.00388229 0)
(0.0240095 -0.0121978 0)
(0.0255231 0.00860365 0)
(0.0235948 -0.0129944 0)
(0.0130954 0.0051303 0)
(0.0232288 -0.0136975 0)
(0.025432 0.00889252 0)
(0.0232238 -0.0137071 0)
(0.022845 -0.0143017 0)
(0.0250621 0.00978567 0)
(0.0130479 0.00524502 0)
(0.0225259 -0.0148025 0)
(0.024722 0.0106066 0)
(0.0222752 -0.015196 0)
(0.0128875 0.00563217 0)
(0.0220948 -0.0154792 0)
(0.024564 0.0109881 0)
(0.0220051 -0.0156201 0)
(0.0219821 -0.01565 0)
(0.0242711 0.0116952 0)
(0.0219383 -0.0157071 0)
(0.0240095 0.0121978 0)
(0.0122833 0.00679289 0)
(0.0206243 -0.0174196 0)
(0.0235948 0.0129944 0)
(0.0190919 -0.0190919 0)
(0.0232288 0.0136975 0)
(0.0174196 -0.0206243 0)
(0.0156201 -0.0220051 0)
(0.0232238 0.0137071 0)
(0.022845 0.0143017 0)
(0.0115802 0.00789654 0)
(0.0139429 -0.00130734 0)
(0.0137721 -0.00260472 0)
(0.0137071 -0.0232238 0)
(0.0134889 -0.00388229 0)
(0.0130954 -0.0051303 0)
(0.0128875 -0.00563217 0)
(0.0122833 -0.00679289 0)
(0.0116952 -0.0242711 0)
(0.0115802 -0.00789654 0)
(0.0109881 -0.024564 0)
(0.0107836 -0.00893471 0)
(0.0098995 -0.0098995 0)
(0.00893471 -0.0107836 0)
(0.00889252 -0.025432 0)
(0.00789654 -0.0115802 0)
(0.00679289 -0.0122833 0)
(0.00672929 -0.0261141 0)
(0.00563217 -0.0128875 0)
(0.0051303 -0.0130954 0)
(0.00451485 -0.026605 0)
(0.00388229 -0.0134889 0)
(0.00260472 -0.0137721 0)
(0.00226605 -0.0269011 0)
(0.00130734 -0.0139429 0)
(0 -0.027 0)
(0 -0.014 0)
(-0.00226605 -0.0269011 0)
(-0.00130734 -0.0139429 0)
(-0.00451485 -0.026605 0)
(-0.00260472 -0.0137721 0)
(-0.00672929 -0.0261141 0)
(-0.00388229 -0.0134889 0)
(-0.00889252 -0.025432 0)
(-0.0051303 -0.0130954 0)
(-0.0109881 -0.024564 0)
(-0.00563217 -0.0128875 0)
(-0.0116952 -0.0242711 0)
(-0.00679289 -0.0122833 0)
(-0.0137071 -0.0232238 0)
(-0.00789654 -0.0115802 0)
(-0.0156201 -0.0220051 0)
(-0.00893471 -0.0107836 0)
(-0.0174196 -0.0206243 0)
(-0.0098995 -0.0098995 0)
(-0.0190919 -0.0190919 0)
(-0.0206243 -0.0174196 0)
(-0.0107836 -0.00893471 0)
(-0.0219383 -0.0157071 0)
(-0.0115802 -0.00789654 0)
(-0.0220948 -0.0154792 0)
(-0.0222752 -0.015196 0)
(-0.0225259 -0.0148025 0)
(-0.022845 -0.0143017 0)
(0.0225259 0.0148025 0)
(0.0222752 0.015196 0)
(0.0220948 0.0154792 0)
(0.0220051 0.0156201 0)
(0.0219821 0.01565 0)
(0.0219383 0.0157071 0)
(0.0107836 0.00893471 0)
(0.0206243 0.0174196 0)
(0.0098995 0.0098995 0)
(0.0190919 0.0190919 0)
(0.0174196 0.0206243 0)
(0.00893471 0.0107836 0)
(0.0156201 0.0220051 0)
(0.00789654 0.0115802 0)
(0.0137071 0.0232238 0)
(0.00679289 0.0122833 0)
(0.0116952 0.0242711 0)
(0.00563217 0.0128875 0)
(0.0109881 0.024564 0)
(0.0051303 0.0130954 0)
(0.00388229 0.0134889 0)
(0.00260472 0.0137721 0)
(0.00130734 0.0139429 0)
(0 0.014 0)
(-0.00130734 0.0139429 0)
(-0.00451485 0.0374379 0)
(-0.00226605 0.0378592 0)
(0 0.038 0)
(0.00087868 0.0372929 0)
(-0.00260472 0.0137721 0)
(-0.00388229 0.0134889 0)
(-0.0051303 0.0130954 0)
(-0.00563217 0.0128875 0)
(-0.00590281 0.037 0)
(-0.00679289 0.0122833 0)
(-0.0074364 0.0364464 0)
(-0.00672929 0.0367393 0)
(-0.00789654 0.0115802 0)
(-0.00893471 0.0107836 0)
(-0.0098995 0.0098995 0)
(-0.0107836 0.00893471 0)
(-0.0115802 0.00789654 0)
(-0.0122833 0.00679289 0)
(-0.0128875 0.00563217 0)
(-0.0130479 0.00524502 0)
(-0.0130954 0.0051303 0)
(-0.0134889 0.00388229 0)
(-0.013549 0.00361118 0)
(-0.0137071 0.03275 0)
(-0.0137721 0.00260472 0)
(-0.0139429 0.00130734 0)
(-0.0139609 0.000896459 0)
(-0.014 0 0)
(-0.0122833 -0.00679289 0)
(-0.0232238 0.0192071 0)
(-0.0220051 0.0219294 0)
(-0.0206243 0.0244902 0)
(-0.0232288 -0.0136975 0)
(-0.0235948 -0.0129944 0)
(-0.0156201 0.0310157 0)
(-0.0190919 0.0268701 0)
(-0.0174196 0.0290508 0)
(-0.0240095 -0.0121978 0)
(-0.0128875 -0.00563217 0)
(-0.0219821 -0.01565 0)
(-0.0220051 -0.0156201 0)
(-0.0191968 0.0267071 0)
(-0.0242711 -0.0116952 0)
(-0.024564 -0.0109881 0)
(-0.024722 -0.0106066 0)
(-0.0250621 -0.00978567 0)
(-0.0232238 -0.0137071 0)
(-0.0235167 0.0185 0)
(-0.025432 -0.00889252 0)
(-0.0255231 -0.00860365 0)
(-0.0130954 -0.0051303 0)
(-0.0258711 -0.0075 0)
(-0.024766 0.0149429 0)
(-0.0247494 0.015 0)
(-0.024564 0.0156369 0)
(-0.0248157 0.0147721 0)
(-0.0248981 0.0144889 0)
(-0.0250127 0.0140954 0)
(-0.0137721 -0.00260472 0)
(-0.0134889 -0.00388229 0)
(-0.0251584 0.0135946 0)
(-0.0256899 0.0114907 0)
(-0.0255134 0.0122873 0)
(-0.0253343 0.0129904 0)
(-0.025432 0.0126547 0)
(-0.0262005 -0.00633927 0)
(-0.0264686 -0.0051303 0)
(-0.026605 -0.00451485 0)
(-0.0258858 0.0106066 0)
(-0.0262656 0.00860365 0)
(-0.0261141 0.0095763 0)
(-0.0261141 -0.00672929 0)
(-0.0260996 0.00964181 0)
(-0.0139429 -0.00130734 0)
(-0.0264375 0.0075 0)
(-0.0266883 -0.00388229 0)
(-0.0268565 -0.00260472 0)
(-0.0266129 0.00633927 0)
(-0.026605 0.00642498 0)
(-0.0269011 -0.00226605 0)
(-0.0267248 0.0051303 0)
(-0.0268402 0.00388229 0)
(-0.0269429 -0.00130734 0)
(-0.0269201 0.00260472 0)
(-0.0269011 0.00322476 0)
(-0.027 0 0)
(-0.0269599 0.00130734 0)
(-0.0269725 0.000896459 0)
(0.0199333 0.0252929 0.000936922)
(0.0191273 0.0252929 0.000603073)
(-0.0074364 0.0364464 0.007)
(-0.00672929 0.0367393 0.007)
(0.0207071 0.0252929 0.00133975)
(-0.00590281 0.037 0.007)
(-0.0156201 0.0310157 0.007)
(-0.0137071 0.03275 0.007)
(0.0227782 0.0252929 0.00292893)
(0.022135 0.0252929 0.00233955)
(-0.0174196 0.0290508 0.007)
(0 0.038 0.007)
(-0.00226605 0.0378592 0.007)
(-0.00451485 0.0374379 0.007)
(0.027 0 0.007)
(0.0269011 0.00226605 0.007)
(0.026605 0.00451485 0.007)
(0.0269011 -0.00226605 0.007)
(0.0261141 0.00672929 0.007)
(0.025432 0.00889252 0.007)
(0.026605 -0.00451485 0.007)
(0.024564 0.0109881 0.007)
(0.0242711 0.0116952 0.007)
(0.0232238 0.0137071 0.007)
(0.0228569 0.010281 0.007)
(0.023432 0.00889252 0.007)
(0.0220051 0.0156201 0.007)
(0.0218096 0.0122929 0.007)
(0.0206243 0.0174196 0.007)
(0.0190919 0.0190919 0.007)
(0.0174196 0.0206243 0.007)
(0.0156201 0.0220051 0.007)
(0.0137071 0.0232238 0.007)
(0.0116952 0.0242711 0.007)
(0.0109881 0.024564 0.007)
(0.010281 0.0228569 0.007)
(0.0122929 0.0218096 0.007)
(0.00889252 0.023432 0.007)
(0.0261141 -0.00672929 0.007)
(0.025432 -0.00889252 0.007)
(0.024564 -0.0109881 0.007)
(0.0228569 -0.010281 0.007)
(0.0242711 -0.0116952 0.007)
(0.0218096 -0.0122929 0.007)