/*--------------------------------*- C++ -*----------------------------------*\
| =========                 |                                                 |
| \\      /  F ield         | OpenFOAM: The Open Source CFD Toolbox           |
|  \\    /   O peration     | Version:  3.0.x                                 |
|   \\  /    A nd           | Web:      www.OpenFOAM.org                      |
|    \\/     M anipulation  |                                                 |
\*---------------------------------------------------------------------------*/
FoamFile
{
    version     2.0;
    format      ascii;
    class       dictionary;
    location    "system";
    object      fvSolution;
}
// * * * * * * * * * * * * * * * * * * * * * * * * * * * * * * * * * * * * * //

solvers
{
    p
    {
        solver          PCG;
        preconditioner  DIC;
        tolerance       1e-06;
        relTol          0.05;
    }

    pFinal
    {
        $p;
        relTol          0;
    }

    "(U|T|k|epsilon|R)"
    {
        solver          PBiCG;
        preconditioner  DILU;
        tolerance       1e-6;
        relTol          0.1;
    }

    "(U|T|k|epsilon|R)Final"
    {
        $U;
        relTol          0;
    }
    
    Phi
    {
        solver GAMG;
        smoother DIC;
        cacheAgglomeration on;
        agglomerator faceAreaPair;
        nCellsInCoarsestLevel 10;
        mergeLevels 1;

        tolerance 1e-06;
        relTol 0.01;
    }
}

potentialFlow
{
    nNonOrthogonalCorrectors 10;
    PhiRefCell 0; 
    PhiRefValue 0;
}

PISO
{
    nCorrectors     2;
    nNonOrthogonalCorrectors 2;
    
    pRefCell            0;
    pRefValue           0;
}

PIMPLE
{
    correctPhi          yes;
    nOuterCorrectors    2;
    nCorrectors         1;
    nNonOrthogonalCorrectors 0;

    pRefCell            0;
    pRefValue           0;
}

// ************************************************************************* //
