/*--------------------------------*- C++ -*----------------------------------*\
| =========                 |                                                 |
| \\      /  F ield         | OpenFOAM: The Open Source CFD Toolbox           |
|  \\    /   O peration     | Version:  3.0.x                                 |
|   \\  /    A nd           | Web:      www.OpenFOAM.org                      |
|    \\/     M anipulation  |                                                 |
\*---------------------------------------------------------------------------*/
FoamFile
{
    version     2.0;
    format      ascii;
    class       dictionary;
    location    "system";
    object      fvSolution;
}
// * * * * * * * * * * * * * * * * * * * * * * * * * * * * * * * * * * * * * //

solvers
{
    p
    {
        solver           GAMG;
        tolerance        1e-7;
        relTol           0.01;

        smoother         DICGaussSeidel;

        cacheAgglomeration true;
        nCellsInCoarsestLevel 10;
        agglomerator     faceAreaPair;
        mergeLevels      1;
    }

    pFinal
    {
        $p;
        relTol          0;
    }

    "(U|k|epsilon)"
    {
        solver          smoothSolver;
        smoother        symGaussSeidel;
        tolerance       1e-05;
        relTol          0.1;
    }

    "(U|k|epsilon)Final"
    {
        $U;
        relTol          0;
    }
}

PIMPLE
{
    nNonOrthogonalCorrectors 0;
    nCorrectors         2;
}

// PIMPLE
// {
//     nNonOrthogonalCorrectors 0;
//     nCorrectors          2;
//     nOuterCorrectors    100;
//  
//     residualControl
//     {
//         U
//         {
//                 tolerance  1e-5;
//                 relTol      0;
//         }
//         p
//         {
//                 tolerance  5e-4;
//                 relTol      0;
//         }
//      }
// }
//  
// relaxationFactors
// {
//     fields
//     {
//         p      0.3;
//         pFinal   1;
//     }
//     equations
//     {
//         "U|k|epsilon"     0.3;
//         "(U|k|epsilon)Final"   1;
//     }
// }

// ************************************************************************* //
