/*--------------------------------*- C++ -*----------------------------------*\
| =========                 |                                                 |
| \\      /  F ield         | OpenFOAM: The Open Source CFD Toolbox           |
|  \\    /   O peration     | Version:  3.0.x                                 |
|   \\  /    A nd           | Web:      www.OpenFOAM.org                      |
|    \\/     M anipulation  |                                                 |
\*---------------------------------------------------------------------------*/
FoamFile
{
    version     2.0;
    format      ascii;
    class       dictionary;
    location    "system";
    object      fvSolution;
}
// * * * * * * * * * * * * * * * * * * * * * * * * * * * * * * * * * * * * * //

solvers
{
    p
    {
        solver          GAMG;
        tolerance       1e-6;
        relTol          0.1;
        smoother        DICGaussSeidel;
        nPreSweeps      0;
        nPostSweeps     2;
        cacheAgglomeration on;
        agglomerator    faceAreaPair;
        nCellsInCoarsestLevel 400;
        mergeLevels     1;
    }

    pFinal
    {
        $p;
        tolerance       1e-7;
        relTol          0;
    };

    "(U|k|epsilon)"
    {
        solver           smoothSolver;
        smoother         GaussSeidel;
        tolerance        1e-5;
        relTol           0.1;
        nSweeps          1;
    }

    "(U|k|epsilon)Final"
    {
        $U;
        relTol          0;
    }
}

// PIMPLE
// {
//     nNonOrthogonalCorrectors 0;
//     nCorrectors         2;
// }

PIMPLE
{
    nNonOrthogonalCorrectors  0;
    nCorrectors               1;
    
    // I found that between 50 and 100 is good here. If it's too low, pimple will fail to converge, usually at the start of the simulation and give poor results for the remainder. Err on a larger number, it will probably do many iterations (e.g. 50-100) for the first 5-10 timesteps. After that, you should see it drop down to anywhere from 5-30 depending on the complexity of the mesh.
    nOuterCorrectors          80;
    
    // Some mesh which has highly turbulent flow will not converge. I noticed that the residual was slowly increasing and never converged. Computing turbulence on every iteration fixed this.
    turbOnFinalIterOnly       no;
 
    residualControl
    {
        U
        {
                tolerance  1e-5;
                relTol      0;
        }
        p
        {
                tolerance  5e-4;
                relTol      0;
        }
     }
}
 
relaxationFactors
{
    // I found 0.7 to 0.9 gives fast convergence (anywhere from 2-15 iterations when working well). Making it too small seems to cause deltaT to become very small (1e-20) which might indicate a failure.
    fields
    {
        p      0.7;
        pFinal   1;
    }
    equations
    {
        "U|k|epsilon"     0.7;
        "(U|k|epsilon)Final"   1;
    }
}

// cache
// {
//     grad(U);
// }

// ************************************************************************* //
